Version 4
SHEET 1 880 680
WIRE 352 64 352 32
WIRE 352 80 352 64
WIRE 352 80 224 80
WIRE 432 112 224 112
WIRE 336 144 224 144
WIRE 272 176 224 176
WIRE 432 192 432 112
WIRE 304 208 224 208
WIRE 0 224 -96 224
WIRE 256 240 224 240
WIRE 336 272 336 144
WIRE 0 320 0 224
WIRE 304 320 304 208
WIRE 304 320 0 320
WIRE 336 336 336 272
WIRE 432 448 432 192
FLAG -96 304 0
FLAG 336 416 0
FLAG 432 528 0
FLAG 272 176 Q
IOPIN 272 176 BiDir
FLAG 352 -48 0
FLAG 352 64 D
IOPIN 352 64 BiDir
FLAG 432 192 PHI1
IOPIN 432 192 BiDir
FLAG 336 272 PHI2
IOPIN 336 272 BiDir
FLAG 256 240 0
SYMBOL DFlipFlop 176 160 R0
SYMATTR InstName X1
SYMBOL voltage -96 208 R0
WINDOW 123 0 0 Left 2
WINDOW 39 0 0 Left 2
SYMATTR InstName V1
SYMATTR Value 3
SYMBOL voltage 336 320 R0
WINDOW 123 0 0 Left 2
WINDOW 39 0 0 Left 2
WINDOW 3 -379 100 Left 2
SYMATTR InstName V2
SYMATTR Value PULSE(0 3 200n 1n 1n 100n 400n)
SYMBOL voltage 432 432 R0
WINDOW 123 0 0 Left 2
WINDOW 39 0 0 Left 2
WINDOW 3 31 83 Left 2
SYMATTR InstName V3
SYMATTR Value PULSE(0 3 0 1n 1n 100n 400n)
SYMBOL voltage 352 48 R180
WINDOW 0 24 96 Left 2
WINDOW 3 62 79 Left 2
WINDOW 123 0 0 Left 2
WINDOW 39 0 0 Left 2
SYMATTR InstName V4
SYMATTR Value PULSE(0 3 0 2n 2n 1u 2u)
TEXT 568 320 Left 2 !.tran 6u
TEXT -424 40 Left 2 !.include cmos2017_models.txt
