Version 4
SHEET 1 1212 680
WIRE 272 64 224 64
WIRE 224 96 224 64
WIRE 224 96 176 96
WIRE 272 128 176 128
WIRE 416 160 176 160
WIRE 416 176 416 160
WIRE 432 176 416 176
WIRE 336 192 176 192
WIRE 240 224 176 224
WIRE 192 256 176 256
WIRE 192 288 192 256
FLAG 192 288 0
FLAG 240 304 0
FLAG 336 272 0
FLAG 240 224 VDD
FLAG 432 112 VDD
SYMBOL output_driver 112 176 R0
SYMATTR InstName X1
SYMBOL cap 256 64 R0
SYMATTR InstName Cexternal
SYMATTR Value 100n
SYMBOL diode 416 112 R0
SYMATTR InstName D1
SYMATTR Value Di_LED
SYMBOL voltage 240 208 R0
WINDOW 0 38 61 Left 2
WINDOW 123 0 0 Left 2
WINDOW 39 0 0 Left 2
SYMATTR InstName V1
SYMATTR Value 3
SYMBOL voltage 336 176 R0
WINDOW 123 0 0 Left 2
WINDOW 39 0 0 Left 2
SYMATTR InstName V2
SYMATTR Value PULSE(3 0 0 1n 1n 400m 100 1)
TEXT 336 8 Left 2 !.model Di_LED D (IS=4e-20 RS=0 BV=5 IBV=100u CJO=0 M=0.5 N=2)
TEXT -48 8 Left 2 !.include cmos2017_models.txt
