Version 4
SHEET 1 880 680
WIRE 352 -160 304 -160
WIRE 208 -80 -16 -80
WIRE 48 -32 -16 -32
WIRE 256 -16 256 -80
WIRE -64 0 -112 0
WIRE 304 0 304 -64
WIRE -48 64 -16 16
WIRE 208 80 208 -80
WIRE 208 80 176 80
WIRE 352 112 352 -160
WIRE 352 112 176 112
WIRE 544 128 544 96
WIRE 336 144 176 144
WIRE 208 176 176 176
WIRE 592 176 544 176
WIRE 480 208 176 208
WIRE 496 208 480 208
WIRE 208 240 176 240
WIRE 544 256 544 224
WIRE 336 304 336 144
WIRE 432 352 336 352
FLAG 336 144 RESET
IOPIN 336 144 BiDir
FLAG 208 176 VDD
IOPIN 208 176 BiDir
FLAG 208 240 VSS
IOPIN 208 240 BiDir
FLAG 544 96 LED
IOPIN 544 96 BiDir
FLAG 544 256 VSS
IOPIN 544 256 BiDir
FLAG 592 176 VSS
IOPIN 592 176 BiDir
FLAG 480 208 VOUT
IOPIN 480 208 BiDir
FLAG -48 64 VSS
IOPIN -48 64 BiDir
FLAG 48 -32 VSS
IOPIN 48 -32 BiDir
FLAG -112 0 VSS
IOPIN -112 0 BiDir
FLAG 304 0 VSS
IOPIN 304 0 BiDir
FLAG 256 -16 VSS
IOPIN 256 -16 BiDir
FLAG 304 -112 VSS
IOPIN 304 -112 BiDir
FLAG 288 384 VSS
IOPIN 288 384 BiDir
FLAG 336 400 VSS
IOPIN 336 400 BiDir
FLAG 432 352 VSS
IOPIN 432 352 BiDir
SYMBOL shift_register 112 160 R0
SYMATTR InstName Shift-Register
SYMBOL nmos4 496 128 R0
WINDOW 123 56 100 Left 2
SYMATTR InstName M1
SYMATTR Value2 l=4.8u w=201.6u
SYMBOL nmos4 256 -160 R0
WINDOW 0 53 28 Left 2
WINDOW 123 101 93 Left 2
SYMATTR InstName M2
SYMATTR Value2 l=4.8u w=175.2u
SYMBOL nmos4 -64 -80 R0
WINDOW 123 79 -20 Left 2
SYMATTR InstName M3
SYMATTR Value2 l=4.8u w=256.8u
SYMBOL nmos4 288 304 R0
WINDOW 123 56 100 Left 2
SYMATTR InstName M4
SYMATTR Value2 l=4.8u w=256.8u
