Version 4
SHEET 1 880 680
WIRE 224 128 208 128
WIRE 16 144 0 144
WIRE 112 144 16 144
WIRE 224 160 208 160
WIRE 304 192 208 192
WIRE 240 224 208 224
WIRE 240 256 240 224
WIRE 352 272 304 272
FLAG 0 224 0
FLAG 224 128 PHI1
IOPIN 224 128 BiDir
FLAG 224 160 PHI2
IOPIN 224 160 BiDir
FLAG 16 144 PHI
IOPIN 16 144 BiDir
FLAG 240 256 0
FLAG 352 272 0
SYMBOL phaseclock 160 160 R0
WINDOW 0 -27 -39 Bottom 2
SYMATTR InstName X1
SYMBOL voltage 0 128 R0
WINDOW 3 -157 145 Left 2
WINDOW 123 0 0 Left 2
WINDOW 39 0 0 Left 2
WINDOW 0 44 -11 Left 2
SYMATTR Value PULSE(0 3 0 1n 1n 25m 50m)
SYMATTR InstName V3
SYMBOL voltage 304 176 R0
WINDOW 123 0 0 Left 2
WINDOW 39 0 0 Left 2
SYMATTR InstName V1
SYMATTR Value 3
TEXT 40 -56 Left 2 !.include cmos2017_models.txt
TEXT -432 256 Left 2 !.tran 500m
