Version 4
SHEET 1 1708 832
WIRE 416 -272 416 -336
WIRE 416 -272 272 -272
WIRE 416 -240 272 -240
WIRE 992 -208 272 -208
WIRE 528 -176 272 -176
WIRE 336 -144 272 -144
WIRE 304 -112 272 -112
WIRE 304 -64 304 -112
WIRE 304 -64 -80 -64
WIRE 160 -32 16 -32
WIRE 368 -32 240 -32
WIRE 608 -32 464 -32
WIRE 832 -32 672 -32
WIRE 368 -16 368 -32
WIRE 416 -16 416 -240
WIRE 416 -16 368 -16
WIRE -80 32 -80 -64
WIRE -80 32 -96 32
WIRE 160 32 160 -32
WIRE 160 32 128 32
WIRE 368 32 368 -16
WIRE 368 32 352 32
WIRE 608 32 608 -32
WIRE 608 32 576 32
WIRE 832 32 832 -32
WIRE 832 32 800 32
WIRE -48 64 -96 64
WIRE 176 64 128 64
WIRE 400 64 352 64
WIRE 608 64 576 64
WIRE 848 64 800 64
WIRE -48 96 -96 96
WIRE 176 96 128 96
WIRE 400 96 352 96
WIRE 608 96 576 96
WIRE 848 96 800 96
WIRE 16 128 16 -32
WIRE 16 128 -96 128
WIRE 240 128 240 -32
WIRE 240 128 128 128
WIRE 464 128 464 -32
WIRE 464 128 352 128
WIRE 672 128 672 -32
WIRE 672 128 576 128
WIRE 992 128 992 -208
WIRE 992 128 800 128
WIRE 1072 128 992 128
WIRE -48 160 -96 160
WIRE 176 160 128 160
WIRE 400 160 352 160
WIRE 608 160 576 160
WIRE 848 160 800 160
WIRE -48 192 -96 192
WIRE 176 192 128 192
WIRE 400 192 352 192
WIRE 608 192 576 192
WIRE 848 192 800 192
WIRE 176 368 128 368
WIRE 192 400 128 400
WIRE 176 432 128 432
WIRE 176 464 128 464
WIRE 176 496 128 496
WIRE 176 528 128 528
WIRE 1472 544 1424 544
WIRE 1504 656 1424 656
FLAG -48 64 PHI1
FLAG 176 64 PHI1
FLAG 400 64 PHI1
FLAG 608 64 PHI1
FLAG 848 64 PHI1
FLAG 176 432 PHI1
FLAG -48 96 PHI2
FLAG 176 96 PHI2
FLAG 400 96 PHI2
FLAG 608 96 PHI2
FLAG 848 96 PHI2
FLAG 176 464 PHI2
FLAG -48 192 VSS
FLAG 176 192 VSS
FLAG 400 192 VSS
FLAG 608 192 VSS
FLAG 848 192 VSS
FLAG 176 528 VSS
FLAG -48 160 VDD
FLAG 176 160 VDD
FLAG 400 160 VDD
FLAG 608 160 VDD
FLAG 848 160 VDD
FLAG 176 496 VDD
FLAG 1504 656 VDD
IOPIN 1504 656 BiDir
FLAG 1472 544 VSS
IOPIN 1472 544 BiDir
FLAG 336 -144 VDD
FLAG 528 -176 RESET
IOPIN 528 -176 BiDir
FLAG 1072 128 VOUT
IOPIN 1072 128 BiDir
FLAG 416 -336 VSS
IOPIN 416 -336 BiDir
FLAG 1424 656 VDD
FLAG 1424 544 VSS
FLAG 176 368 C1
IOPIN 176 368 BiDir
FLAG 192 400 C2
IOPIN 192 400 BiDir
SYMBOL XNOR_reset 208 -192 R0
WINDOW 0 8 -115 Invisible 2
SYMATTR InstName XNOR
SYMBOL mainclock 80 448 R0
SYMATTR InstName X1
SYMBOL DFlipFlop -144 112 R0
SYMATTR InstName FF1
SYMBOL DFlipFlop 80 112 R0
SYMATTR InstName FF2
SYMBOL DFlipFlop 304 112 R0
SYMATTR InstName FF3
SYMBOL DFlipFlop 528 112 R0
SYMATTR InstName FF4
SYMBOL DFlipFlop 752 112 R0
SYMATTR InstName FF5
