Version 4
SHEET 1 880 680
WIRE -240 64 -272 64
WIRE -224 64 -240 64
WIRE -160 96 -272 96
WIRE -160 112 -160 96
WIRE -96 128 -272 128
WIRE -32 160 -272 160
WIRE -16 192 -272 192
WIRE -224 208 -224 64
WIRE -160 304 -160 112
WIRE -96 368 -96 128
WIRE -32 432 -32 160
FLAG -224 288 0
FLAG -160 384 0
FLAG -96 448 0
FLAG -16 192 VOUT
IOPIN -16 192 BiDir
FLAG -240 64 A
IOPIN -240 64 BiDir
FLAG -160 112 B
IOPIN -160 112 BiDir
FLAG -96 128 RESET
IOPIN -96 128 BiDir
FLAG -32 512 0
SYMBOL voltage -224 192 R0
WINDOW 3 -371 70 Left 2
WINDOW 123 0 0 Left 2
WINDOW 39 0 0 Left 2
SYMATTR Value PULSE(0 3 0 1n 1n 200n 400n)
SYMATTR InstName V1
SYMBOL voltage -160 288 R0
WINDOW 3 -373 43 Left 2
WINDOW 123 0 0 Left 2
WINDOW 39 0 0 Left 2
SYMATTR Value PULSE(3 0 0 1n 1n 400n 800n)
SYMATTR InstName V2
SYMBOL voltage -96 352 R0
WINDOW 3 -360 73 Left 2
WINDOW 123 0 0 Left 2
WINDOW 39 0 0 Left 2
SYMATTR Value PULSE(3 0 0 1n 1n 0.6u 1.2u)
SYMATTR InstName V3
SYMBOL XNOR_reset -336 128 R0
WINDOW 0 3 -96 Bottom 2
SYMATTR InstName X1
SYMBOL voltage -32 416 R0
WINDOW 123 0 0 Left 2
WINDOW 39 0 0 Left 2
SYMATTR InstName V4
SYMATTR Value 3
TEXT -408 -24 Left 2 !.include cmos2017_models.txt
TEXT 432 392 Left 2 !.tran 5u
TEXT 88 40 Left 2 !.options plotwinsize=0
